PyDSS/api/src/tmp/b9cdc11d-29d5-47e8-bdf4-30e875d95f9b_distribution_federate/Loads.dss
New Load.load_p6ulv13783_1 conn=wye bus1=p6ulv13783.1 kV=0.12 Vminpu=0.8 Vmaxpu=1.2 model=1 kW=1.465015 kvar=0.2997758712202973 Phases=1

New Load.load_p6ulv13783_2 conn=wye bus1=p6ulv13783.2 kV=0.12 Vminpu=0.8 Vmaxpu=1.2 model=1 kW=1.465015 kvar=0.2997758712202973 Phases=1

New Load.load_p6ulv13784_1 conn=wye bus1=p6ulv13784.1 kV=0.12 Vminpu=0.8 Vmaxpu=1.2 model=1 kW=1.330015 kvar=0.2700710645231352 Phases=1

New Load.load_p6ulv13784_2 conn=wye bus1=p6ulv13784.2 kV=0.12 Vminpu=0.8 Vmaxpu=1.2 model=1 kW=1.330015 kvar=0.2700710645231352 Phases=1

New Load.load_p6ulv13785_1 conn=wye bus1=p6ulv13785.1 kV=0.12 Vminpu=0.8 Vmaxpu=1.2 model=1 kW=0.6600050000000001 kvar=0.13505225126346992 Phases=1

New Load.load_p6ulv13785_2 conn=wye bus1=p6ulv13785.2 kV=0.12 Vminpu=0.8 Vmaxpu=1.2 model=1 kW=0.6600050000000001 kvar=0.13505225126346992 Phases=1

New Load.load_p6ulv13786_1 conn=wye bus1=p6ulv13785.1 kV=0.12 Vminpu=0.8 Vmaxpu=1.2 model=1 kW=0.375004 kvar=0.07496236221505388 Phases=1

New Load.load_p6ulv13786_2 conn=wye bus1=p6ulv13785.2 kV=0.12 Vminpu=0.8 Vmaxpu=1.2 model=1 kW=0.375004 kvar=0.07496236221505388 Phases=1

New Load.load_p6ulv13787_1 conn=wye bus1=p6ulv13787.1 kV=0.12 Vminpu=0.8 Vmaxpu=1.2 model=1 kW=0.585005 kvar=0.12000921855100456 Phases=1

New Load.load_p6ulv13787_2 conn=wye bus1=p6ulv13787.2 kV=0.12 Vminpu=0.8 Vmaxpu=1.2 model=1 kW=0.585005 kvar=0.12000921855100456 Phases=1

New Load.load_p6ulv13788_1 conn=wye bus1=p6ulv13788.1 kV=0.12 Vminpu=0.8 Vmaxpu=1.2 model=1 kW=0.82001 kvar=0.16478601089290207 Phases=1

New Load.load_p6ulv13788_2 conn=wye bus1=p6ulv13788.2 kV=0.12 Vminpu=0.8 Vmaxpu=1.2 model=1 kW=0.82001 kvar=0.16478601089290207 Phases=1

New Load.load_p6ulv13789_1 conn=wye bus1=p6ulv13789.1 kV=0.12 Vminpu=0.8 Vmaxpu=1.2 model=1 kW=0.85501 kvar=0.17495477360441117 Phases=1

New Load.load_p6ulv13789_2 conn=wye bus1=p6ulv13789.2 kV=0.12 Vminpu=0.8 Vmaxpu=1.2 model=1 kW=0.85501 kvar=0.17495477360441117 Phases=1

New Load.load_p6ulv13790_1 conn=wye bus1=p6ulv13790.1 kV=0.12 Vminpu=0.8 Vmaxpu=1.2 model=1 kW=0.4700045 kvar=0.09494551206520921 Phases=1

New Load.load_p6ulv13790_2 conn=wye bus1=p6ulv13790.2 kV=0.12 Vminpu=0.8 Vmaxpu=1.2 model=1 kW=0.4700045 kvar=0.09494551206520921 Phases=1

New Load.load_p6ulv13791_1 conn=wye bus1=p6ulv13791.1 kV=0.12 Vminpu=0.8 Vmaxpu=1.2 model=1 kW=0.685005 kvar=0.14016782808726178 Phases=1

New Load.load_p6ulv13791_2 conn=wye bus1=p6ulv13791.2 kV=0.12 Vminpu=0.8 Vmaxpu=1.2 model=1 kW=0.685005 kvar=0.14016782808726178 Phases=1

New Load.load_p6ulv13792_1 conn=wye bus1=p6ulv13792.1 kV=0.12 Vminpu=0.8 Vmaxpu=1.2 model=1 kW=0.550005 kvar=0.10994462467091208 Phases=1

New Load.load_p6ulv13792_2 conn=wye bus1=p6ulv13792.2 kV=0.12 Vminpu=0.8 Vmaxpu=1.2 model=1 kW=0.550005 kvar=0.10994462467091208 Phases=1

New Load.load_p6ulv13793_1 conn=wye bus1=p6ulv13793.1 kV=0.12 Vminpu=0.8 Vmaxpu=1.2 model=1 kW=1.8750200000000001 kvar=0.37975684917974134 Phases=1

New Load.load_p6ulv13793_2 conn=wye bus1=p6ulv13793.2 kV=0.12 Vminpu=0.8 Vmaxpu=1.2 model=1 kW=1.8750200000000001 kvar=0.37975684917974134 Phases=1

New Load.load_p6ulv13794_1 conn=wye bus1=p6ulv13794.1 kV=0.12 Vminpu=0.8 Vmaxpu=1.2 model=1 kW=2.7100250000000004 kvar=0.5502940467846674 Phases=1

New Load.load_p6ulv13794_2 conn=wye bus1=p6ulv13794.2 kV=0.12 Vminpu=0.8 Vmaxpu=1.2 model=1 kW=2.7100250000000004 kvar=0.5502940467846674 Phases=1

New Load.load_p6ulv13795_1 conn=wye bus1=p6ulv13795.1 kV=0.12 Vminpu=0.8 Vmaxpu=1.2 model=1 kW=7.6801 kvar=1.5595108195352163 Phases=1

New Load.load_p6ulv13795_2 conn=wye bus1=p6ulv13795.2 kV=0.12 Vminpu=0.8 Vmaxpu=1.2 model=1 kW=7.6801 kvar=1.5595108195352163 Phases=1

New Load.load_p6ulv13797_1 conn=wye bus1=p6ulv13797.1 kV=0.12 Vminpu=0.8 Vmaxpu=1.2 model=1 kW=1.11501 kvar=0.22524294003106118 Phases=1

New Load.load_p6ulv13797_2 conn=wye bus1=p6ulv13797.2 kV=0.12 Vminpu=0.8 Vmaxpu=1.2 model=1 kW=1.11501 kvar=0.22524294003106118 Phases=1

New Load.load_p6ulv13798_1 conn=wye bus1=p6ulv13798.1 kV=0.12 Vminpu=0.8 Vmaxpu=1.2 model=1 kW=0.535005 kvar=0.11002923262326189 Phases=1

New Load.load_p6ulv13798_2 conn=wye bus1=p6ulv13798.2 kV=0.12 Vminpu=0.8 Vmaxpu=1.2 model=1 kW=0.535005 kvar=0.11002923262326189 Phases=1

New Load.load_p6ulv13799_1 conn=wye bus1=p6ulv13799.1 kV=0.12 Vminpu=0.8 Vmaxpu=1.2 model=1 kW=0.695005 kvar=0.14003207787879351 Phases=1

New Load.load_p6ulv13799_2 conn=wye bus1=p6ulv13799.2 kV=0.12 Vminpu=0.8 Vmaxpu=1.2 model=1 kW=0.695005 kvar=0.14003207787879351 Phases=1

New Load.load_p6ulv13800_1 conn=wye bus1=p6ulv13800.1 kV=0.12 Vminpu=0.8 Vmaxpu=1.2 model=1 kW=0.8650100000000001 kvar=0.175194649715186 Phases=1

New Load.load_p6ulv13800_2 conn=wye bus1=p6ulv13800.2 kV=0.12 Vminpu=0.8 Vmaxpu=1.2 model=1 kW=0.8650100000000001 kvar=0.175194649715186 Phases=1

New Load.load_p6ulv13801_1 conn=wye bus1=p6ulv13801.1 kV=0.12 Vminpu=0.8 Vmaxpu=1.2 model=1 kW=0.480005 kvar=0.09492831937299649 Phases=1

New Load.load_p6ulv13801_2 conn=wye bus1=p6ulv13801.2 kV=0.12 Vminpu=0.8 Vmaxpu=1.2 model=1 kW=0.480005 kvar=0.09492831937299649 Phases=1

New Load.load_p6ulv14405_1 conn=wye bus1=p6ulv14405.1 kV=0.12 Vminpu=0.8 Vmaxpu=1.2 model=1 kW=0.545005 kvar=0.11009634759475566 Phases=1

New Load.load_p6ulv14405_2 conn=wye bus1=p6ulv14405.2 kV=0.12 Vminpu=0.8 Vmaxpu=1.2 model=1 kW=0.545005 kvar=0.11009634759475566 Phases=1

New Load.load_p6ulv14406_1 conn=wye bus1=p6ulv14406.1 kV=0.12 Vminpu=0.8 Vmaxpu=1.2 model=1 kW=0.290003 kvar=0.05994151579317487 Phases=1

New Load.load_p6ulv14406_2 conn=wye bus1=p6ulv14406.2 kV=0.12 Vminpu=0.8 Vmaxpu=1.2 model=1 kW=0.290003 kvar=0.05994151579317487 Phases=1

New Load.load_p6ulv14407_1 conn=wye bus1=p6ulv14407.1 kV=0.12 Vminpu=0.8 Vmaxpu=1.2 model=1 kW=1.86002 kvar=0.37963524364068607 Phases=1

New Load.load_p6ulv14407_2 conn=wye bus1=p6ulv14407.2 kV=0.12 Vminpu=0.8 Vmaxpu=1.2 model=1 kW=1.86002 kvar=0.37963524364068607 Phases=1

New Load.load_p6ulv14408_1 conn=wye bus1=p6ulv14408.1 kV=0.12 Vminpu=0.8 Vmaxpu=1.2 model=1 kW=0.83001 kvar=0.16983919678061932 Phases=1

New Load.load_p6ulv14408_2 conn=wye bus1=p6ulv14408.2 kV=0.12 Vminpu=0.8 Vmaxpu=1.2 model=1 kW=0.83001 kvar=0.16983919678061932 Phases=1

New Load.load_p6ulv14409_1 conn=wye bus1=p6ulv14409.1 kV=0.12 Vminpu=0.8 Vmaxpu=1.2 model=1 kW=0.5300050000000001 kvar=0.10510011513410371 Phases=1

New Load.load_p6ulv14409_2 conn=wye bus1=p6ulv14409.2 kV=0.12 Vminpu=0.8 Vmaxpu=1.2 model=1 kW=0.5300050000000001 kvar=0.10510011513410371 Phases=1

New Load.load_p6ulv14410_1 conn=wye bus1=p6ulv14410.1 kV=0.12 Vminpu=0.8 Vmaxpu=1.2 model=1 kW=0.610005 kvar=0.12513777380057528 Phases=1

New Load.load_p6ulv14410_2 conn=wye bus1=p6ulv14410.2 kV=0.12 Vminpu=0.8 Vmaxpu=1.2 model=1 kW=0.610005 kvar=0.12513777380057528 Phases=1

New Load.load_p6ulv14411_1 conn=wye bus1=p6ulv14411.1 kV=0.12 Vminpu=0.8 Vmaxpu=1.2 model=1 kW=0.705005 kvar=0.1449914657723998 Phases=1

New Load.load_p6ulv14411_2 conn=wye bus1=p6ulv14411.2 kV=0.12 Vminpu=0.8 Vmaxpu=1.2 model=1 kW=0.705005 kvar=0.1449914657723998 Phases=1

New Load.load_p6ulv14412_1 conn=wye bus1=p6ulv14412.1 kV=0.12 Vminpu=0.8 Vmaxpu=1.2 model=1 kW=0.410004 kvar=0.08495583202151072 Phases=1

New Load.load_p6ulv14412_2 conn=wye bus1=p6ulv14412.2 kV=0.12 Vminpu=0.8 Vmaxpu=1.2 model=1 kW=0.410004 kvar=0.08495583202151072 Phases=1

New Load.load_p6ulv14413_1 conn=wye bus1=p6ulv14413.1 kV=0.12 Vminpu=0.8 Vmaxpu=1.2 model=1 kW=0.3450035 kvar=0.07005594862404371 Phases=1

New Load.load_p6ulv14413_2 conn=wye bus1=p6ulv14413.2 kV=0.12 Vminpu=0.8 Vmaxpu=1.2 model=1 kW=0.3450035 kvar=0.07005594862404371 Phases=1

New Load.load_p6ulv14414_1 conn=wye bus1=p6ulv14414.1 kV=0.12 Vminpu=0.8 Vmaxpu=1.2 model=1 kW=0.580005 kvar=0.19002026216842752 Phases=1

New Load.load_p6ulv14414_2 conn=wye bus1=p6ulv14414.2 kV=0.12 Vminpu=0.8 Vmaxpu=1.2 model=1 kW=0.580005 kvar=0.19002026216842752 Phases=1

New Load.load_p6ulv14415_1 conn=wye bus1=p6ulv14415.1 kV=0.12 Vminpu=0.8 Vmaxpu=1.2 model=1 kW=0.620005 kvar=0.20510285407361964 Phases=1

New Load.load_p6ulv14415_2 conn=wye bus1=p6ulv14415.2 kV=0.12 Vminpu=0.8 Vmaxpu=1.2 model=1 kW=0.620005 kvar=0.20510285407361964 Phases=1

New Load.load_p6ulv14574_1 conn=wye bus1=p6ulv14574.1 kV=0.12 Vminpu=0.8 Vmaxpu=1.2 model=1 kW=0.77001 kvar=0.15514435189307957 Phases=1

New Load.load_p6ulv14574_2 conn=wye bus1=p6ulv14574.2 kV=0.12 Vminpu=0.8 Vmaxpu=1.2 model=1 kW=0.77001 kvar=0.15514435189307957 Phases=1

New Load.load_p6ulv14575_1 conn=wye bus1=p6ulv14575.1 kV=0.12 Vminpu=0.8 Vmaxpu=1.2 model=1 kW=1.80502 kvar=0.36463171775577446 Phases=1

New Load.load_p6ulv14575_2 conn=wye bus1=p6ulv14575.2 kV=0.12 Vminpu=0.8 Vmaxpu=1.2 model=1 kW=1.80502 kvar=0.36463171775577446 Phases=1

New Load.load_p6ulv14576_1 conn=wye bus1=p6ulv14576.1 kV=0.12 Vminpu=0.8 Vmaxpu=1.2 model=1 kW=0.605005 kvar=0.12505014348972168 Phases=1

New Load.load_p6ulv14576_2 conn=wye bus1=p6ulv14576.2 kV=0.12 Vminpu=0.8 Vmaxpu=1.2 model=1 kW=0.605005 kvar=0.12505014348972168 Phases=1

New Load.load_p6ulv14577_1 conn=wye bus1=p6ulv14577.1 kV=0.12 Vminpu=0.8 Vmaxpu=1.2 model=1 kW=0.4300045 kvar=0.0850399568917525 Phases=1

New Load.load_p6ulv14577_2 conn=wye bus1=p6ulv14577.2 kV=0.12 Vminpu=0.8 Vmaxpu=1.2 model=1 kW=0.4300045 kvar=0.0850399568917525 Phases=1

New Load.load_p6ulv14578_1 conn=wye bus1=p6ulv14578.1 kV=0.12 Vminpu=0.8 Vmaxpu=1.2 model=1 kW=0.4250045 kvar=0.08495733718047772 Phases=1

New Load.load_p6ulv14578_2 conn=wye bus1=p6ulv14578.2 kV=0.12 Vminpu=0.8 Vmaxpu=1.2 model=1 kW=0.4250045 kvar=0.08495733718047772 Phases=1

New Load.load_p6ulv14579_1 conn=wye bus1=p6ulv14579.1 kV=0.12 Vminpu=0.8 Vmaxpu=1.2 model=1 kW=1.09001 kvar=0.22019269518951132 Phases=1

New Load.load_p6ulv14579_2 conn=wye bus1=p6ulv14579.2 kV=0.12 Vminpu=0.8 Vmaxpu=1.2 model=1 kW=1.09001 kvar=0.22019269518951132 Phases=1

New Load.load_p6ulv14580_1 conn=wye bus1=p6ulv14580.1 kV=0.12 Vminpu=0.8 Vmaxpu=1.2 model=1 kW=0.715005 kvar=0.14518795764661624 Phases=1

New Load.load_p6ulv14580_2 conn=wye bus1=p6ulv14580.2 kV=0.12 Vminpu=0.8 Vmaxpu=1.2 model=1 kW=0.715005 kvar=0.14518795764661624 Phases=1

New Load.load_p6ulv14581_1 conn=wye bus1=p6ulv14581.1 kV=0.12 Vminpu=0.8 Vmaxpu=1.2 model=1 kW=1.565015 kvar=0.31532478523389046 Phases=1

New Load.load_p6ulv14581_2 conn=wye bus1=p6ulv14581.2 kV=0.12 Vminpu=0.8 Vmaxpu=1.2 model=1 kW=1.565015 kvar=0.31532478523389046 Phases=1

New Load.load_p6ulv14582_1 conn=wye bus1=p6ulv14582.1 kV=0.12 Vminpu=0.8 Vmaxpu=1.2 model=1 kW=0.705005 kvar=0.1449914657723998 Phases=1

New Load.load_p6ulv14582_2 conn=wye bus1=p6ulv14582.2 kV=0.12 Vminpu=0.8 Vmaxpu=1.2 model=1 kW=0.705005 kvar=0.1449914657723998 Phases=1

New Load.load_p6ulv14583_1 conn=wye bus1=p6ulv14583.1 kV=0.12 Vminpu=0.8 Vmaxpu=1.2 model=1 kW=0.490005 kvar=0.10001138028631647 Phases=1

New Load.load_p6ulv14583_2 conn=wye bus1=p6ulv14583.2 kV=0.12 Vminpu=0.8 Vmaxpu=1.2 model=1 kW=0.490005 kvar=0.10001138028631647 Phases=1

New Load.load_p6ulv14584_1 conn=wye bus1=p6ulv14584.1 kV=0.12 Vminpu=0.8 Vmaxpu=1.2 model=1 kW=0.88501 kvar=0.18017149277293337 Phases=1

New Load.load_p6ulv14584_2 conn=wye bus1=p6ulv14584.2 kV=0.12 Vminpu=0.8 Vmaxpu=1.2 model=1 kW=0.88501 kvar=0.18017149277293337 Phases=1

New Load.load_p6ulv14585_1 conn=wye bus1=p6ulv14585.1 kV=0.12 Vminpu=0.8 Vmaxpu=1.2 model=1 kW=1.300015 kvar=0.26533666910116366 Phases=1

New Load.load_p6ulv14585_2 conn=wye bus1=p6ulv14585.2 kV=0.12 Vminpu=0.8 Vmaxpu=1.2 model=1 kW=1.300015 kvar=0.26533666910116366 Phases=1

New Load.load_p6ulv14586_1 conn=wye bus1=p6ulv14586.1 kV=0.12 Vminpu=0.8 Vmaxpu=1.2 model=1 kW=0.560005 kvar=0.11488066330143384 Phases=1

New Load.load_p6ulv14586_2 conn=wye bus1=p6ulv14586.2 kV=0.12 Vminpu=0.8 Vmaxpu=1.2 model=1 kW=0.560005 kvar=0.11488066330143384 Phases=1

New Load.load_p6ulv14587_1 conn=wye bus1=p6ulv14587.1 kV=0.12 Vminpu=0.8 Vmaxpu=1.2 model=1 kW=2.665025 kvar=0.5397603742814691 Phases=1

New Load.load_p6ulv14587_2 conn=wye bus1=p6ulv14587.2 kV=0.12 Vminpu=0.8 Vmaxpu=1.2 model=1 kW=2.665025 kvar=0.5397603742814691 Phases=1

New Load.load_p6ulv14588_1 conn=wye bus1=p6ulv14588.1 kV=0.12 Vminpu=0.8 Vmaxpu=1.2 model=1 kW=1.09501 kvar=0.22004893816884757 Phases=1

New Load.load_p6ulv14588_2 conn=wye bus1=p6ulv14588.2 kV=0.12 Vminpu=0.8 Vmaxpu=1.2 model=1 kW=1.09501 kvar=0.22004893816884757 Phases=1

New Load.load_p6ulv14589_1 conn=wye bus1=p6ulv14589.1 kV=0.12 Vminpu=0.8 Vmaxpu=1.2 model=1 kW=1.260015 kvar=0.2551969186031145 Phases=1

New Load.load_p6ulv14589_2 conn=wye bus1=p6ulv14589.2 kV=0.12 Vminpu=0.8 Vmaxpu=1.2 model=1 kW=1.260015 kvar=0.2551969186031145 Phases=1

New Load.load_p6ulv14590_1 conn=wye bus1=p6ulv14590.1 kV=0.12 Vminpu=0.8 Vmaxpu=1.2 model=1 kW=0.310003 kvar=0.06502735463963502 Phases=1

New Load.load_p6ulv14590_2 conn=wye bus1=p6ulv14590.2 kV=0.12 Vminpu=0.8 Vmaxpu=1.2 model=1 kW=0.310003 kvar=0.06502735463963502 Phases=1

New Load.load_p6ulv16572 conn=wye bus1=p6ulv16572.1.2.3 kV=0.48 Vminpu=0.8 Vmaxpu=1.2 model=1 kW=33.9303 kvar=6.889841272909956 Phases=3

New Load.load_p6ulv16573_1 conn=wye bus1=p6ulv16573.1 kV=0.12 Vminpu=0.8 Vmaxpu=1.2 model=1 kW=0.515005 kvar=0.10511394966246143 Phases=1

New Load.load_p6ulv16573_2 conn=wye bus1=p6ulv16573.2 kV=0.12 Vminpu=0.8 Vmaxpu=1.2 model=1 kW=0.515005 kvar=0.10511394966246143 Phases=1

New Load.load_p6ulv16574_1 conn=wye bus1=p6ulv16574.1 kV=0.12 Vminpu=0.8 Vmaxpu=1.2 model=1 kW=0.91001 kvar=0.18478541176355026 Phases=1

New Load.load_p6ulv16574_2 conn=wye bus1=p6ulv16574.2 kV=0.12 Vminpu=0.8 Vmaxpu=1.2 model=1 kW=0.91001 kvar=0.18478541176355026 Phases=1

New Load.load_p6ulv16575_1 conn=wye bus1=p6ulv16575.1 kV=0.12 Vminpu=0.8 Vmaxpu=1.2 model=1 kW=1.430015 kvar=0.29037693058653563 Phases=1

New Load.load_p6ulv16575_2 conn=wye bus1=p6ulv16575.2 kV=0.12 Vminpu=0.8 Vmaxpu=1.2 model=1 kW=1.430015 kvar=0.29037693058653563 Phases=1

New Load.load_p6ulv16576_1 conn=wye bus1=p6ulv16576.1 kV=0.12 Vminpu=0.8 Vmaxpu=1.2 model=1 kW=0.730005 kvar=0.150132970647273 Phases=1

New Load.load_p6ulv16576_2 conn=wye bus1=p6ulv16576.2 kV=0.12 Vminpu=0.8 Vmaxpu=1.2 model=1 kW=0.730005 kvar=0.150132970647273 Phases=1

New Load.load_p6ulv16577_1 conn=wye bus1=p6ulv16577.1 kV=0.12 Vminpu=0.8 Vmaxpu=1.2 model=1 kW=2.13502 kvar=0.434650162710103 Phases=1

New Load.load_p6ulv16577_2 conn=wye bus1=p6ulv16577.2 kV=0.12 Vminpu=0.8 Vmaxpu=1.2 model=1 kW=2.13502 kvar=0.434650162710103 Phases=1

New Load.load_p6ulv16578_1 conn=wye bus1=p6ulv16578.1 kV=0.12 Vminpu=0.8 Vmaxpu=1.2 model=1 kW=1.6600150000000002 kvar=0.33533928762581683 Phases=1

New Load.load_p6ulv16578_2 conn=wye bus1=p6ulv16578.2 kV=0.12 Vminpu=0.8 Vmaxpu=1.2 model=1 kW=1.6600150000000002 kvar=0.33533928762581683 Phases=1

New Load.load_p6ulv16579_1 conn=wye bus1=p6ulv16579.1 kV=0.12 Vminpu=0.8 Vmaxpu=1.2 model=1 kW=1.465015 kvar=0.2997758712202973 Phases=1

New Load.load_p6ulv16579_2 conn=wye bus1=p6ulv16579.2 kV=0.12 Vminpu=0.8 Vmaxpu=1.2 model=1 kW=1.465015 kvar=0.2997758712202973 Phases=1

New Load.load_p6ulv16580_1 conn=wye bus1=p6ulv16580.1 kV=0.12 Vminpu=0.8 Vmaxpu=1.2 model=1 kW=1.6400150000000002 kvar=0.3347316126167352 Phases=1

New Load.load_p6ulv16580_2 conn=wye bus1=p6ulv16580.2 kV=0.12 Vminpu=0.8 Vmaxpu=1.2 model=1 kW=1.6400150000000002 kvar=0.3347316126167352 Phases=1

New Load.load_p6ulv16581_1 conn=wye bus1=p6ulv16581.1 kV=0.12 Vminpu=0.8 Vmaxpu=1.2 model=1 kW=0.510005 kvar=0.10488772774838868 Phases=1

New Load.load_p6ulv16581_2 conn=wye bus1=p6ulv16581.2 kV=0.12 Vminpu=0.8 Vmaxpu=1.2 model=1 kW=0.510005 kvar=0.10488772774838868 Phases=1

New Load.load_p6ulv16586_1 conn=wye bus1=p6ulv16586.1 kV=0.12 Vminpu=0.8 Vmaxpu=1.2 model=1 kW=0.735005 kvar=0.15001656017253706 Phases=1

New Load.load_p6ulv16586_2 conn=wye bus1=p6ulv16586.2 kV=0.12 Vminpu=0.8 Vmaxpu=1.2 model=1 kW=0.735005 kvar=0.15001656017253706 Phases=1

New Load.load_p6ulv16587_1 conn=wye bus1=p6ulv16587.1 kV=0.12 Vminpu=0.8 Vmaxpu=1.2 model=1 kW=0.670005 kvar=0.13499498901328918 Phases=1

New Load.load_p6ulv16587_2 conn=wye bus1=p6ulv16587.2 kV=0.12 Vminpu=0.8 Vmaxpu=1.2 model=1 kW=0.670005 kvar=0.13499498901328918 Phases=1

New Load.load_p6ulv16588_1 conn=wye bus1=p6ulv16588.1 kV=0.12 Vminpu=0.8 Vmaxpu=1.2 model=1 kW=0.745005 kvar=0.15010625560980215 Phases=1

New Load.load_p6ulv16588_2 conn=wye bus1=p6ulv16588.2 kV=0.12 Vminpu=0.8 Vmaxpu=1.2 model=1 kW=0.745005 kvar=0.15010625560980215 Phases=1

New Load.load_p6ulv16589_1 conn=wye bus1=p6ulv16589.1 kV=0.12 Vminpu=0.8 Vmaxpu=1.2 model=1 kW=1.510015 kvar=0.30503781857651757 Phases=1

New Load.load_p6ulv16589_2 conn=wye bus1=p6ulv16589.2 kV=0.12 Vminpu=0.8 Vmaxpu=1.2 model=1 kW=1.510015 kvar=0.30503781857651757 Phases=1

New Load.load_p6ulv16590_1 conn=wye bus1=p6ulv16590.1 kV=0.12 Vminpu=0.8 Vmaxpu=1.2 model=1 kW=0.735005 kvar=0.15001656017253706 Phases=1

New Load.load_p6ulv16590_2 conn=wye bus1=p6ulv16590.2 kV=0.12 Vminpu=0.8 Vmaxpu=1.2 model=1 kW=0.735005 kvar=0.15001656017253706 Phases=1

New Load.load_p6ulv16591_1 conn=wye bus1=p6ulv16591.1 kV=0.12 Vminpu=0.8 Vmaxpu=1.2 model=1 kW=0.4700045 kvar=0.09494551206520921 Phases=1

New Load.load_p6ulv16591_2 conn=wye bus1=p6ulv16591.2 kV=0.12 Vminpu=0.8 Vmaxpu=1.2 model=1 kW=0.4700045 kvar=0.09494551206520921 Phases=1

New Load.load_p6ulv16592_1 conn=wye bus1=p6ulv16592.1 kV=0.12 Vminpu=0.8 Vmaxpu=1.2 model=1 kW=1.540015 kvar=0.31028769636838605 Phases=1

New Load.load_p6ulv16592_2 conn=wye bus1=p6ulv16592.2 kV=0.12 Vminpu=0.8 Vmaxpu=1.2 model=1 kW=1.540015 kvar=0.31028769636838605 Phases=1

New Load.load_p6ulv16593_1 conn=wye bus1=p6ulv16593.1 kV=0.12 Vminpu=0.8 Vmaxpu=1.2 model=1 kW=1.405015 kvar=0.2853004640706855 Phases=1

New Load.load_p6ulv16593_2 conn=wye bus1=p6ulv16593.2 kV=0.12 Vminpu=0.8 Vmaxpu=1.2 model=1 kW=1.405015 kvar=0.2853004640706855 Phases=1

New Load.load_p6ulv16594_1 conn=wye bus1=p6ulv16594.1 kV=0.12 Vminpu=0.8 Vmaxpu=1.2 model=1 kW=0.4350045 kvar=0.0899122736897623 Phases=1

New Load.load_p6ulv16594_2 conn=wye bus1=p6ulv16594.2 kV=0.12 Vminpu=0.8 Vmaxpu=1.2 model=1 kW=0.4350045 kvar=0.0899122736897623 Phases=1

New Load.load_p6ulv16595_1 conn=wye bus1=p6ulv16595.1 kV=0.12 Vminpu=0.8 Vmaxpu=1.2 model=1 kW=1.480015 kvar=0.2997545802918128 Phases=1

New Load.load_p6ulv16595_2 conn=wye bus1=p6ulv16595.2 kV=0.12 Vminpu=0.8 Vmaxpu=1.2 model=1 kW=1.480015 kvar=0.2997545802918128 Phases=1

New Load.load_p6ulv16596_1 conn=wye bus1=p6ulv16596.1 kV=0.12 Vminpu=0.8 Vmaxpu=1.2 model=1 kW=1.0600100000000001 kvar=0.2152442108586509 Phases=1

New Load.load_p6ulv16596_2 conn=wye bus1=p6ulv16596.2 kV=0.12 Vminpu=0.8 Vmaxpu=1.2 model=1 kW=1.0600100000000001 kvar=0.2152442108586509 Phases=1

New Load.load_p6ulv16597_1 conn=wye bus1=p6ulv16597.1 kV=0.12 Vminpu=0.8 Vmaxpu=1.2 model=1 kW=0.95001 kvar=0.1948871509057869 Phases=1

New Load.load_p6ulv16597_2 conn=wye bus1=p6ulv16597.2 kV=0.12 Vminpu=0.8 Vmaxpu=1.2 model=1 kW=0.95001 kvar=0.1948871509057869 Phases=1

New Load.load_p6ulv16598_1 conn=wye bus1=p6ulv16598.1 kV=0.12 Vminpu=0.8 Vmaxpu=1.2 model=1 kW=1.05501 kvar=0.21478031501381048 Phases=1

New Load.load_p6ulv16598_2 conn=wye bus1=p6ulv16598.2 kV=0.12 Vminpu=0.8 Vmaxpu=1.2 model=1 kW=1.05501 kvar=0.21478031501381048 Phases=1

New Load.load_p6ulv16599_1 conn=wye bus1=p6ulv16599.1 kV=0.12 Vminpu=0.8 Vmaxpu=1.2 model=1 kW=1.545015 kvar=0.3153418489873843 Phases=1

New Load.load_p6ulv16599_2 conn=wye bus1=p6ulv16599.2 kV=0.12 Vminpu=0.8 Vmaxpu=1.2 model=1 kW=1.545015 kvar=0.3153418489873843 Phases=1

New Load.load_p6ulv16600_1 conn=wye bus1=p6ulv16600.1 kV=0.12 Vminpu=0.8 Vmaxpu=1.2 model=1 kW=0.89001 kvar=0.17979073645711227 Phases=1

New Load.load_p6ulv16600_2 conn=wye bus1=p6ulv16600.2 kV=0.12 Vminpu=0.8 Vmaxpu=1.2 model=1 kW=0.89001 kvar=0.17979073645711227 Phases=1

New Load.load_p6ulv16601_1 conn=wye bus1=p6ulv16601.1 kV=0.12 Vminpu=0.8 Vmaxpu=1.2 model=1 kW=1.78502 kvar=0.35965217466810157 Phases=1

New Load.load_p6ulv16601_2 conn=wye bus1=p6ulv16601.2 kV=0.12 Vminpu=0.8 Vmaxpu=1.2 model=1 kW=1.78502 kvar=0.35965217466810157 Phases=1

New Load.load_p6ulv16602_1 conn=wye bus1=p6ulv16602.1 kV=0.12 Vminpu=0.8 Vmaxpu=1.2 model=1 kW=0.545005 kvar=0.11009634759475566 Phases=1

New Load.load_p6ulv16602_2 conn=wye bus1=p6ulv16602.2 kV=0.12 Vminpu=0.8 Vmaxpu=1.2 model=1 kW=0.545005 kvar=0.11009634759475566 Phases=1

New Load.load_p6ulv16603_1 conn=wye bus1=p6ulv16603.1 kV=0.12 Vminpu=0.8 Vmaxpu=1.2 model=1 kW=0.88001 kvar=0.18007035042820305 Phases=1

New Load.load_p6ulv16603_2 conn=wye bus1=p6ulv16603.2 kV=0.12 Vminpu=0.8 Vmaxpu=1.2 model=1 kW=0.88001 kvar=0.18007035042820305 Phases=1

New Load.load_p6ulv16604_1 conn=wye bus1=p6ulv16604.1 kV=0.12 Vminpu=0.8 Vmaxpu=1.2 model=1 kW=1.2750150000000002 kvar=0.2602340997250187 Phases=1

New Load.load_p6ulv16604_2 conn=wye bus1=p6ulv16604.2 kV=0.12 Vminpu=0.8 Vmaxpu=1.2 model=1 kW=1.2750150000000002 kvar=0.2602340997250187 Phases=1

New Load.load_p6ulv16605_1 conn=wye bus1=p6ulv16605.1 kV=0.12 Vminpu=0.8 Vmaxpu=1.2 model=1 kW=1.10501 kvar=0.2249593803787744 Phases=1

New Load.load_p6ulv16605_2 conn=wye bus1=p6ulv16605.2 kV=0.12 Vminpu=0.8 Vmaxpu=1.2 model=1 kW=1.10501 kvar=0.2249593803787744 Phases=1

New Load.load_p6ulv16606_1 conn=wye bus1=p6ulv16606.1 kV=0.12 Vminpu=0.8 Vmaxpu=1.2 model=1 kW=0.380004 kvar=0.074947817996359 Phases=1

New Load.load_p6ulv16606_2 conn=wye bus1=p6ulv16606.2 kV=0.12 Vminpu=0.8 Vmaxpu=1.2 model=1 kW=0.380004 kvar=0.074947817996359 Phases=1

New Load.load_p6ulv16607_1 conn=wye bus1=p6ulv16607.1 kV=0.12 Vminpu=0.8 Vmaxpu=1.2 model=1 kW=0.94501 kvar=0.18990552329105911 Phases=1

New Load.load_p6ulv16607_2 conn=wye bus1=p6ulv16607.2 kV=0.12 Vminpu=0.8 Vmaxpu=1.2 model=1 kW=0.94501 kvar=0.18990552329105911 Phases=1

New Load.load_p6ulv16608_1 conn=wye bus1=p6ulv16608.1 kV=0.12 Vminpu=0.8 Vmaxpu=1.2 model=1 kW=1.94502 kvar=0.394953156106351 Phases=1

New Load.load_p6ulv16608_2 conn=wye bus1=p6ulv16608.2 kV=0.12 Vminpu=0.8 Vmaxpu=1.2 model=1 kW=1.94502 kvar=0.394953156106351 Phases=1

New Load.load_p6ulv16609_1 conn=wye bus1=p6ulv16609.1 kV=0.12 Vminpu=0.8 Vmaxpu=1.2 model=1 kW=1.12001 kvar=0.2297613266028677 Phases=1

New Load.load_p6ulv16609_2 conn=wye bus1=p6ulv16609.2 kV=0.12 Vminpu=0.8 Vmaxpu=1.2 model=1 kW=1.12001 kvar=0.2297613266028677 Phases=1

New Load.load_p6ulv16610_1 conn=wye bus1=p6ulv16610.1 kV=0.12 Vminpu=0.8 Vmaxpu=1.2 model=1 kW=1.03501 kvar=0.2101677443428008 Phases=1

New Load.load_p6ulv16610_2 conn=wye bus1=p6ulv16610.2 kV=0.12 Vminpu=0.8 Vmaxpu=1.2 model=1 kW=1.03501 kvar=0.2101677443428008 Phases=1

New Load.load_p6ulv16611_1 conn=wye bus1=p6ulv16611.1 kV=0.12 Vminpu=0.8 Vmaxpu=1.2 model=1 kW=1.5250150000000002 kvar=0.30966750334676607 Phases=1

New Load.load_p6ulv16611_2 conn=wye bus1=p6ulv16611.2 kV=0.12 Vminpu=0.8 Vmaxpu=1.2 model=1 kW=1.5250150000000002 kvar=0.30966750334676607 Phases=1

New Load.load_p6ulv16612_1 conn=wye bus1=p6ulv16612.1 kV=0.12 Vminpu=0.8 Vmaxpu=1.2 model=1 kW=1.14001 kvar=0.23029318487261108 Phases=1

New Load.load_p6ulv16612_2 conn=wye bus1=p6ulv16612.2 kV=0.12 Vminpu=0.8 Vmaxpu=1.2 model=1 kW=1.14001 kvar=0.23029318487261108 Phases=1

New Load.load_p6ulv16613_1 conn=wye bus1=p6ulv16613.1 kV=0.12 Vminpu=0.8 Vmaxpu=1.2 model=1 kW=0.96501 kvar=0.19494147098176193 Phases=1

New Load.load_p6ulv16613_2 conn=wye bus1=p6ulv16613.2 kV=0.12 Vminpu=0.8 Vmaxpu=1.2 model=1 kW=0.96501 kvar=0.19494147098176193 Phases=1

New Load.load_p6ulv16814_1 conn=wye bus1=p6ulv16814.1 kV=0.12 Vminpu=0.8 Vmaxpu=1.2 model=1 kW=2.490025 kvar=0.5056211414451866 Phases=1

New Load.load_p6ulv16814_2 conn=wye bus1=p6ulv16814.2 kV=0.12 Vminpu=0.8 Vmaxpu=1.2 model=1 kW=2.490025 kvar=0.5056211414451866 Phases=1

New Load.load_p6ulv16815_1 conn=wye bus1=p6ulv16815.1 kV=0.12 Vminpu=0.8 Vmaxpu=1.2 model=1 kW=0.630005 kvar=0.12493013846107302 Phases=1

New Load.load_p6ulv16815_2 conn=wye bus1=p6ulv16815.2 kV=0.12 Vminpu=0.8 Vmaxpu=1.2 model=1 kW=0.630005 kvar=0.12493013846107302 Phases=1

New Load.load_p6ulv16816_1 conn=wye bus1=p6ulv16816.1 kV=0.12 Vminpu=0.8 Vmaxpu=1.2 model=1 kW=2.610025 kvar=0.529988180721267 Phases=1

New Load.load_p6ulv16816_2 conn=wye bus1=p6ulv16816.2 kV=0.12 Vminpu=0.8 Vmaxpu=1.2 model=1 kW=2.610025 kvar=0.529988180721267 Phases=1

New Load.load_p6ulv16817_1 conn=wye bus1=p6ulv16817.1 kV=0.12 Vminpu=0.8 Vmaxpu=1.2 model=1 kW=0.3500035 kvar=0.06996482475796689 Phases=1

New Load.load_p6ulv16817_2 conn=wye bus1=p6ulv16817.2 kV=0.12 Vminpu=0.8 Vmaxpu=1.2 model=1 kW=0.3500035 kvar=0.06996482475796689 Phases=1

New Load.load_p6ulv16818_1 conn=wye bus1=p6ulv16818.1 kV=0.12 Vminpu=0.8 Vmaxpu=1.2 model=1 kW=1.80502 kvar=0.36463171775577446 Phases=1

New Load.load_p6ulv16818_2 conn=wye bus1=p6ulv16818.2 kV=0.12 Vminpu=0.8 Vmaxpu=1.2 model=1 kW=1.80502 kvar=0.36463171775577446 Phases=1

New Load.load_p6ulv16819_1 conn=wye bus1=p6ulv16819.1 kV=0.12 Vminpu=0.8 Vmaxpu=1.2 model=1 kW=0.8650100000000001 kvar=0.175194649715186 Phases=1

New Load.load_p6ulv16819_2 conn=wye bus1=p6ulv16819.2 kV=0.12 Vminpu=0.8 Vmaxpu=1.2 model=1 kW=0.8650100000000001 kvar=0.175194649715186 Phases=1

New Load.load_p6ulv16820_1 conn=wye bus1=p6ulv16820.1 kV=0.12 Vminpu=0.8 Vmaxpu=1.2 model=1 kW=0.500005 kvar=0.09994974965423842 Phases=1

New Load.load_p6ulv16820_2 conn=wye bus1=p6ulv16820.2 kV=0.12 Vminpu=0.8 Vmaxpu=1.2 model=1 kW=0.500005 kvar=0.09994974965423842 Phases=1

New Load.load_p6ulv16821_1 conn=wye bus1=p6ulv16821.1 kV=0.12 Vminpu=0.8 Vmaxpu=1.2 model=1 kW=0.210002 kvar=0.04004521322670341 Phases=1

New Load.load_p6ulv16821_2 conn=wye bus1=p6ulv16821.2 kV=0.12 Vminpu=0.8 Vmaxpu=1.2 model=1 kW=0.210002 kvar=0.04004521322670341 Phases=1

New Load.load_p6ulv16822_1 conn=wye bus1=p6ulv16822.1 kV=0.12 Vminpu=0.8 Vmaxpu=1.2 model=1 kW=1.305015 kvar=0.2649945980072851 Phases=1

New Load.load_p6ulv16822_2 conn=wye bus1=p6ulv16822.2 kV=0.12 Vminpu=0.8 Vmaxpu=1.2 model=1 kW=1.305015 kvar=0.2649945980072851 Phases=1

New Load.load_p6ulv16823_1 conn=wye bus1=p6ulv16823.1 kV=0.12 Vminpu=0.8 Vmaxpu=1.2 model=1 kW=1.2650150000000002 kvar=0.25487971884783844 Phases=1

New Load.load_p6ulv16823_2 conn=wye bus1=p6ulv16823.2 kV=0.12 Vminpu=0.8 Vmaxpu=1.2 model=1 kW=1.2650150000000002 kvar=0.25487971884783844 Phases=1

New Load.load_p6ulv16824_1 conn=wye bus1=p6ulv16824.1 kV=0.12 Vminpu=0.8 Vmaxpu=1.2 model=1 kW=0.700005 kvar=0.1399292497209331 Phases=1

New Load.load_p6ulv16824_2 conn=wye bus1=p6ulv16824.2 kV=0.12 Vminpu=0.8 Vmaxpu=1.2 model=1 kW=0.700005 kvar=0.1399292497209331 Phases=1

New Load.load_p6ulv16825_1 conn=wye bus1=p6ulv16825.1 kV=0.12 Vminpu=0.8 Vmaxpu=1.2 model=1 kW=1.1750100000000003 kvar=0.23982280170656367 Phases=1

New Load.load_p6ulv16825_2 conn=wye bus1=p6ulv16825.2 kV=0.12 Vminpu=0.8 Vmaxpu=1.2 model=1 kW=1.1750100000000003 kvar=0.23982280170656367 Phases=1

New Load.load_p6ulv16826_1 conn=wye bus1=p6ulv16826.1 kV=0.12 Vminpu=0.8 Vmaxpu=1.2 model=1 kW=0.4400045 kvar=0.1449345226445076 Phases=1

New Load.load_p6ulv16826_2 conn=wye bus1=p6ulv16826.2 kV=0.12 Vminpu=0.8 Vmaxpu=1.2 model=1 kW=0.4400045 kvar=0.1449345226445076 Phases=1

New Load.load_p6ulv16827_1 conn=wye bus1=p6ulv16827.1 kV=0.12 Vminpu=0.8 Vmaxpu=1.2 model=1 kW=5.87005 kvar=1.9293921316051856 Phases=1

New Load.load_p6ulv16827_2 conn=wye bus1=p6ulv16827.2 kV=0.12 Vminpu=0.8 Vmaxpu=1.2 model=1 kW=5.87005 kvar=1.9293921316051856 Phases=1

New Load.load_p6ulv16828_1 conn=wye bus1=p6ulv16828.1 kV=0.12 Vminpu=0.8 Vmaxpu=1.2 model=1 kW=0.515005 kvar=0.10511394966246143 Phases=1

New Load.load_p6ulv16828_2 conn=wye bus1=p6ulv16828.2 kV=0.12 Vminpu=0.8 Vmaxpu=1.2 model=1 kW=0.515005 kvar=0.10511394966246143 Phases=1

New Load.load_p6ulv16829_1 conn=wye bus1=p6ulv16829.1 kV=0.12 Vminpu=0.8 Vmaxpu=1.2 model=1 kW=1.23501 kvar=0.2501325352825422 Phases=1

New Load.load_p6ulv16829_2 conn=wye bus1=p6ulv16829.2 kV=0.12 Vminpu=0.8 Vmaxpu=1.2 model=1 kW=1.23501 kvar=0.2501325352825422 Phases=1

New Load.load_p6ulv16830_1 conn=wye bus1=p6ulv16830.1 kV=0.12 Vminpu=0.8 Vmaxpu=1.2 model=1 kW=1.04001 kvar=0.21009220550641156 Phases=1

New Load.load_p6ulv16830_2 conn=wye bus1=p6ulv16830.2 kV=0.12 Vminpu=0.8 Vmaxpu=1.2 model=1 kW=1.04001 kvar=0.21009220550641156 Phases=1

New Load.load_p6ulv16831_1 conn=wye bus1=p6ulv16831.1 kV=0.12 Vminpu=0.8 Vmaxpu=1.2 model=1 kW=1.8550200000000001 kvar=0.37473220743887425 Phases=1

New Load.load_p6ulv16831_2 conn=wye bus1=p6ulv16831.2 kV=0.12 Vminpu=0.8 Vmaxpu=1.2 model=1 kW=1.8550200000000001 kvar=0.37473220743887425 Phases=1

New Load.load_p6ulv16832_1 conn=wye bus1=p6ulv16832.1 kV=0.12 Vminpu=0.8 Vmaxpu=1.2 model=1 kW=1.21001 kvar=0.24506916463609923 Phases=1

New Load.load_p6ulv16832_2 conn=wye bus1=p6ulv16832.2 kV=0.12 Vminpu=0.8 Vmaxpu=1.2 model=1 kW=1.21001 kvar=0.24506916463609923 Phases=1

New Load.load_p6ulv16833_1 conn=wye bus1=p6ulv16833.1 kV=0.12 Vminpu=0.8 Vmaxpu=1.2 model=1 kW=1.290015 kvar=0.25991680771334275 Phases=1

New Load.load_p6ulv16833_2 conn=wye bus1=p6ulv16833.2 kV=0.12 Vminpu=0.8 Vmaxpu=1.2 model=1 kW=1.290015 kvar=0.25991680771334275 Phases=1

New Load.load_p6ulv16834_1 conn=wye bus1=p6ulv16834.1 kV=0.12 Vminpu=0.8 Vmaxpu=1.2 model=1 kW=0.725005 kvar=0.14985327275107757 Phases=1

New Load.load_p6ulv16834_2 conn=wye bus1=p6ulv16834.2 kV=0.12 Vminpu=0.8 Vmaxpu=1.2 model=1 kW=0.725005 kvar=0.14985327275107757 Phases=1

New Load.load_p6ulv16835_1 conn=wye bus1=p6ulv16835.1 kV=0.12 Vminpu=0.8 Vmaxpu=1.2 model=1 kW=1.295015 kvar=0.26498994881851273 Phases=1

New Load.load_p6ulv16835_2 conn=wye bus1=p6ulv16835.2 kV=0.12 Vminpu=0.8 Vmaxpu=1.2 model=1 kW=1.295015 kvar=0.26498994881851273 Phases=1

New Load.load_p6ulv16836_1 conn=wye bus1=p6ulv16836.1 kV=0.12 Vminpu=0.8 Vmaxpu=1.2 model=1 kW=0.605005 kvar=0.19992693295245656 Phases=1

New Load.load_p6ulv16836_2 conn=wye bus1=p6ulv16836.2 kV=0.12 Vminpu=0.8 Vmaxpu=1.2 model=1 kW=0.605005 kvar=0.19992693295245656 Phases=1

New Load.load_p6ulv16837_1 conn=wye bus1=p6ulv16837.1 kV=0.12 Vminpu=0.8 Vmaxpu=1.2 model=1 kW=0.33000350000000006 kvar=0.10998179932708904 Phases=1

New Load.load_p6ulv16837_2 conn=wye bus1=p6ulv16837.2 kV=0.12 Vminpu=0.8 Vmaxpu=1.2 model=1 kW=0.33000350000000006 kvar=0.10998179932708904 Phases=1

New Load.load_p6ulv16838_1 conn=wye bus1=p6ulv16838.1 kV=0.12 Vminpu=0.8 Vmaxpu=1.2 model=1 kW=1.330015 kvar=0.4347904481719146 Phases=1

New Load.load_p6ulv16838_2 conn=wye bus1=p6ulv16838.2 kV=0.12 Vminpu=0.8 Vmaxpu=1.2 model=1 kW=1.330015 kvar=0.4347904481719146 Phases=1

New Load.load_p6ulv16839_1 conn=wye bus1=p6ulv16839.1 kV=0.12 Vminpu=0.8 Vmaxpu=1.2 model=1 kW=0.605005 kvar=0.19992693295245656 Phases=1

New Load.load_p6ulv16839_2 conn=wye bus1=p6ulv16839.2 kV=0.12 Vminpu=0.8 Vmaxpu=1.2 model=1 kW=0.605005 kvar=0.19992693295245656 Phases=1

New Load.load_p6ulv16840_1 conn=wye bus1=p6ulv16840.1 kV=0.12 Vminpu=0.8 Vmaxpu=1.2 model=1 kW=2.605025 kvar=0.8553055524518209 Phases=1

New Load.load_p6ulv16840_2 conn=wye bus1=p6ulv16840.2 kV=0.12 Vminpu=0.8 Vmaxpu=1.2 model=1 kW=2.605025 kvar=0.8553055524518209 Phases=1

New Load.load_p6ulv16841_1 conn=wye bus1=p6ulv16841.1 kV=0.12 Vminpu=0.8 Vmaxpu=1.2 model=1 kW=0.81501 kvar=0.2649775591441934 Phases=1

New Load.load_p6ulv16841_2 conn=wye bus1=p6ulv16841.2 kV=0.12 Vminpu=0.8 Vmaxpu=1.2 model=1 kW=0.81501 kvar=0.2649775591441934 Phases=1

New Load.load_p6ulv16842_1 conn=wye bus1=p6ulv16842.1 kV=0.12 Vminpu=0.8 Vmaxpu=1.2 model=1 kW=0.95501 kvar=0.3149121155732503 Phases=1

New Load.load_p6ulv16842_2 conn=wye bus1=p6ulv16842.2 kV=0.12 Vminpu=0.8 Vmaxpu=1.2 model=1 kW=0.95501 kvar=0.3149121155732503 Phases=1

New Load.load_p6ulv16843_1 conn=wye bus1=p6ulv16843.1 kV=0.12 Vminpu=0.8 Vmaxpu=1.2 model=1 kW=2.89003 kvar=0.5853317227735851 Phases=1

New Load.load_p6ulv16843_2 conn=wye bus1=p6ulv16843.2 kV=0.12 Vminpu=0.8 Vmaxpu=1.2 model=1 kW=2.89003 kvar=0.5853317227735851 Phases=1

New Load.load_p6ulv17770_1 conn=wye bus1=p6ulv17770.1 kV=0.12 Vminpu=0.8 Vmaxpu=1.2 model=1 kW=0.78001 kvar=0.16001297520870603 Phases=1

New Load.load_p6ulv17770_2 conn=wye bus1=p6ulv17770.2 kV=0.12 Vminpu=0.8 Vmaxpu=1.2 model=1 kW=0.78001 kvar=0.16001297520870603 Phases=1

New Load.load_p6ulv17771_1 conn=wye bus1=p6ulv17771.1 kV=0.12 Vminpu=0.8 Vmaxpu=1.2 model=1 kW=1.18001 kvar=0.24022797842622015 Phases=1

New Load.load_p6ulv17771_2 conn=wye bus1=p6ulv17771.2 kV=0.12 Vminpu=0.8 Vmaxpu=1.2 model=1 kW=1.18001 kvar=0.24022797842622015 Phases=1

New Load.load_p6ulv17772_1 conn=wye bus1=p6ulv17772.1 kV=0.12 Vminpu=0.8 Vmaxpu=1.2 model=1 kW=1.2650150000000002 kvar=0.25487971884783844 Phases=1

New Load.load_p6ulv17772_2 conn=wye bus1=p6ulv17772.2 kV=0.12 Vminpu=0.8 Vmaxpu=1.2 model=1 kW=1.2650150000000002 kvar=0.25487971884783844 Phases=1

New Load.load_p6ulv17774_1 conn=wye bus1=p6ulv17774.1 kV=0.12 Vminpu=0.8 Vmaxpu=1.2 model=1 kW=0.4700045 kvar=0.1549827870115996 Phases=1

New Load.load_p6ulv17774_2 conn=wye bus1=p6ulv17774.2 kV=0.12 Vminpu=0.8 Vmaxpu=1.2 model=1 kW=0.4700045 kvar=0.1549827870115996 Phases=1

New Load.load_p6ulv17775_1 conn=wye bus1=p6ulv17775.1 kV=0.12 Vminpu=0.8 Vmaxpu=1.2 model=1 kW=0.410004 kvar=0.13505255974049962 Phases=1

New Load.load_p6ulv17775_2 conn=wye bus1=p6ulv17775.2 kV=0.12 Vminpu=0.8 Vmaxpu=1.2 model=1 kW=0.410004 kvar=0.13505255974049962 Phases=1

New Load.load_p6ulv19749_1 conn=wye bus1=p6ulv19749.1 kV=0.12 Vminpu=0.8 Vmaxpu=1.2 model=1 kW=3.330035 kvar=1.0945295741892955 Phases=1

New Load.load_p6ulv19749_2 conn=wye bus1=p6ulv19749.2 kV=0.12 Vminpu=0.8 Vmaxpu=1.2 model=1 kW=3.330035 kvar=1.0945295741892955 Phases=1

New Load.load_p6ulv19750_1 conn=wye bus1=p6ulv19750.1 kV=0.12 Vminpu=0.8 Vmaxpu=1.2 model=1 kW=0.75501 kvar=0.15488441995913532 Phases=1

New Load.load_p6ulv19750_2 conn=wye bus1=p6ulv19750.2 kV=0.12 Vminpu=0.8 Vmaxpu=1.2 model=1 kW=0.75501 kvar=0.15488441995913532 Phases=1

New Load.load_p6ulv19751_1 conn=wye bus1=p6ulv19751.1 kV=0.12 Vminpu=0.8 Vmaxpu=1.2 model=1 kW=0.570005 kvar=0.11514659243630554 Phases=1

New Load.load_p6ulv19751_2 conn=wye bus1=p6ulv19751.2 kV=0.12 Vminpu=0.8 Vmaxpu=1.2 model=1 kW=0.570005 kvar=0.11514659243630554 Phases=1

New Load.load_p6ulv19752_1 conn=wye bus1=p6ulv19752.1 kV=0.12 Vminpu=0.8 Vmaxpu=1.2 model=1 kW=1.01001 kvar=0.2050912778269507 Phases=1

New Load.load_p6ulv19752_2 conn=wye bus1=p6ulv19752.2 kV=0.12 Vminpu=0.8 Vmaxpu=1.2 model=1 kW=1.01001 kvar=0.2050912778269507 Phases=1

New Load.load_p6ulv19753_1 conn=wye bus1=p6ulv19753.1 kV=0.12 Vminpu=0.8 Vmaxpu=1.2 model=1 kW=1.575015 kvar=0.3198204363784663 Phases=1

New Load.load_p6ulv19753_2 conn=wye bus1=p6ulv19753.2 kV=0.12 Vminpu=0.8 Vmaxpu=1.2 model=1 kW=1.575015 kvar=0.3198204363784663 Phases=1

New Load.load_p6ulv19754_1 conn=wye bus1=p6ulv19754.1 kV=0.12 Vminpu=0.8 Vmaxpu=1.2 model=1 kW=2.555025 kvar=0.5201553296823358 Phases=1

New Load.load_p6ulv19754_2 conn=wye bus1=p6ulv19754.2 kV=0.12 Vminpu=0.8 Vmaxpu=1.2 model=1 kW=2.555025 kvar=0.5201553296823358 Phases=1

New Load.load_p6ulv19755_1 conn=wye bus1=p6ulv19755.1 kV=0.12 Vminpu=0.8 Vmaxpu=1.2 model=1 kW=0.77001 kvar=0.15514435189307957 Phases=1

New Load.load_p6ulv19755_2 conn=wye bus1=p6ulv19755.2 kV=0.12 Vminpu=0.8 Vmaxpu=1.2 model=1 kW=0.77001 kvar=0.15514435189307957 Phases=1

New Load.load_p6ulv19756_1 conn=wye bus1=p6ulv19756.1 kV=0.12 Vminpu=0.8 Vmaxpu=1.2 model=1 kW=0.710005 kvar=0.1449139907963921 Phases=1

New Load.load_p6ulv19756_2 conn=wye bus1=p6ulv19756.2 kV=0.12 Vminpu=0.8 Vmaxpu=1.2 model=1 kW=0.710005 kvar=0.1449139907963921 Phases=1

New Load.load_p6ulv19757_1 conn=wye bus1=p6ulv19757.1 kV=0.12 Vminpu=0.8 Vmaxpu=1.2 model=1 kW=0.4700045 kvar=0.09494551206520921 Phases=1

New Load.load_p6ulv19757_2 conn=wye bus1=p6ulv19757.2 kV=0.12 Vminpu=0.8 Vmaxpu=1.2 model=1 kW=0.4700045 kvar=0.09494551206520921 Phases=1

New Load.load_p6ulv19758_1 conn=wye bus1=p6ulv19758.1 kV=0.12 Vminpu=0.8 Vmaxpu=1.2 model=1 kW=0.520005 kvar=0.10504610275320578 Phases=1

New Load.load_p6ulv19758_2 conn=wye bus1=p6ulv19758.2 kV=0.12 Vminpu=0.8 Vmaxpu=1.2 model=1 kW=0.520005 kvar=0.10504610275320578 Phases=1

New Load.load_p6ulv22233_1 conn=wye bus1=p6ulv22233.1 kV=0.12 Vminpu=0.8 Vmaxpu=1.2 model=1 kW=2.17002 kvar=0.4395046228077686 Phases=1

New Load.load_p6ulv22233_2 conn=wye bus1=p6ulv22233.2 kV=0.12 Vminpu=0.8 Vmaxpu=1.2 model=1 kW=2.17002 kvar=0.4395046228077686 Phases=1

New Load.load_p6ulv22871_1 conn=wye bus1=p6ulv22871.1 kV=0.12 Vminpu=0.8 Vmaxpu=1.2 model=1 kW=0.285003 kvar=0.09498427366260767 Phases=1

New Load.load_p6ulv22871_2 conn=wye bus1=p6ulv22871.2 kV=0.12 Vminpu=0.8 Vmaxpu=1.2 model=1 kW=0.285003 kvar=0.09498427366260767 Phases=1

New Load.load_p6ulv23211_1 conn=wye bus1=p6ulv23211.1 kV=0.12 Vminpu=0.8 Vmaxpu=1.2 model=1 kW=0.585005 kvar=0.1899886209241039 Phases=1

New Load.load_p6ulv23211_2 conn=wye bus1=p6ulv23211.2 kV=0.12 Vminpu=0.8 Vmaxpu=1.2 model=1 kW=0.585005 kvar=0.1899886209241039 Phases=1

New Load.load_p6ulv23212_1 conn=wye bus1=p6ulv23212.1 kV=0.12 Vminpu=0.8 Vmaxpu=1.2 model=1 kW=1.395015 kvar=0.2847264327305145 Phases=1

New Load.load_p6ulv23212_2 conn=wye bus1=p6ulv23212.2 kV=0.12 Vminpu=0.8 Vmaxpu=1.2 model=1 kW=1.395015 kvar=0.2847264327305145 Phases=1

New Load.load_p6ulv23213_1 conn=wye bus1=p6ulv23213.1 kV=0.12 Vminpu=0.8 Vmaxpu=1.2 model=1 kW=1.04001 kvar=0.21009220550641156 Phases=1

New Load.load_p6ulv23213_2 conn=wye bus1=p6ulv23213.2 kV=0.12 Vminpu=0.8 Vmaxpu=1.2 model=1 kW=1.04001 kvar=0.21009220550641156 Phases=1

New Load.load_p6ulv23214_1 conn=wye bus1=p6ulv23214.1 kV=0.12 Vminpu=0.8 Vmaxpu=1.2 model=1 kW=0.670005 kvar=0.13499498901328918 Phases=1

New Load.load_p6ulv23214_2 conn=wye bus1=p6ulv23214.2 kV=0.12 Vminpu=0.8 Vmaxpu=1.2 model=1 kW=0.670005 kvar=0.13499498901328918 Phases=1

New Load.load_p6ulv23215_1 conn=wye bus1=p6ulv23215.1 kV=0.12 Vminpu=0.8 Vmaxpu=1.2 model=1 kW=1.03501 kvar=0.2101677443428008 Phases=1

New Load.load_p6ulv23215_2 conn=wye bus1=p6ulv23215.2 kV=0.12 Vminpu=0.8 Vmaxpu=1.2 model=1 kW=1.03501 kvar=0.2101677443428008 Phases=1

New Load.load_p6ulv23216_1 conn=wye bus1=p6ulv23216.1 kV=0.12 Vminpu=0.8 Vmaxpu=1.2 model=1 kW=0.80501 kvar=0.16514153045827676 Phases=1

New Load.load_p6ulv23216_2 conn=wye bus1=p6ulv23216.2 kV=0.12 Vminpu=0.8 Vmaxpu=1.2 model=1 kW=0.80501 kvar=0.16514153045827676 Phases=1

New Load.load_p6ulv23217_1 conn=wye bus1=p6ulv23217.1 kV=0.12 Vminpu=0.8 Vmaxpu=1.2 model=1 kW=0.2550025 kvar=0.05001940972998758 Phases=1

New Load.load_p6ulv23217_2 conn=wye bus1=p6ulv23217.2 kV=0.12 Vminpu=0.8 Vmaxpu=1.2 model=1 kW=0.2550025 kvar=0.05001940972998758 Phases=1

New Load.load_p6ulv23218_1 conn=wye bus1=p6ulv23218.1 kV=0.12 Vminpu=0.8 Vmaxpu=1.2 model=1 kW=0.8600100000000002 kvar=0.17508196009045146 Phases=1

New Load.load_p6ulv23218_2 conn=wye bus1=p6ulv23218.2 kV=0.12 Vminpu=0.8 Vmaxpu=1.2 model=1 kW=0.8600100000000002 kvar=0.17508196009045146 Phases=1

New Load.load_p6ulv23219_1 conn=wye bus1=p6ulv23219.1 kV=0.12 Vminpu=0.8 Vmaxpu=1.2 model=1 kW=1.0500100000000003 kvar=0.21485627282998776 Phases=1

New Load.load_p6ulv23219_2 conn=wye bus1=p6ulv23219.2 kV=0.12 Vminpu=0.8 Vmaxpu=1.2 model=1 kW=1.0500100000000003 kvar=0.21485627282998776 Phases=1

New Load.load_p6ulv23220_1 conn=wye bus1=p6ulv23220.1 kV=0.12 Vminpu=0.8 Vmaxpu=1.2 model=1 kW=0.720005 kvar=0.14506916674429784 Phases=1

New Load.load_p6ulv23220_2 conn=wye bus1=p6ulv23220.2 kV=0.12 Vminpu=0.8 Vmaxpu=1.2 model=1 kW=0.720005 kvar=0.14506916674429784 Phases=1

New Load.load_p6ulv23221_1 conn=wye bus1=p6ulv23221.1 kV=0.12 Vminpu=0.8 Vmaxpu=1.2 model=1 kW=1.92002 kvar=0.38987668959050087 Phases=1

New Load.load_p6ulv23221_2 conn=wye bus1=p6ulv23221.2 kV=0.12 Vminpu=0.8 Vmaxpu=1.2 model=1 kW=1.92002 kvar=0.38987668959050087 Phases=1

New Load.load_p6ulv23222_1 conn=wye bus1=p6ulv23222.1 kV=0.12 Vminpu=0.8 Vmaxpu=1.2 model=1 kW=0.81501 kvar=0.1650679084223 Phases=1

New Load.load_p6ulv23222_2 conn=wye bus1=p6ulv23222.2 kV=0.12 Vminpu=0.8 Vmaxpu=1.2 model=1 kW=0.81501 kvar=0.1650679084223 Phases=1

New Load.load_p6ulv23223_1 conn=wye bus1=p6ulv23223.1 kV=0.12 Vminpu=0.8 Vmaxpu=1.2 model=1 kW=0.77001 kvar=0.15514435189307957 Phases=1

New Load.load_p6ulv23223_2 conn=wye bus1=p6ulv23223.2 kV=0.12 Vminpu=0.8 Vmaxpu=1.2 model=1 kW=0.77001 kvar=0.15514435189307957 Phases=1

New Load.load_p6ulv23224_1 conn=wye bus1=p6ulv23224.1 kV=0.12 Vminpu=0.8 Vmaxpu=1.2 model=1 kW=0.79001 kvar=0.16000453777585702 Phases=1

New Load.load_p6ulv23224_2 conn=wye bus1=p6ulv23224.2 kV=0.12 Vminpu=0.8 Vmaxpu=1.2 model=1 kW=0.79001 kvar=0.16000453777585702 Phases=1

New Load.load_p6ulv23225_1 conn=wye bus1=p6ulv23225.1 kV=0.12 Vminpu=0.8 Vmaxpu=1.2 model=1 kW=1.330015 kvar=0.2700710645231352 Phases=1

New Load.load_p6ulv23225_2 conn=wye bus1=p6ulv23225.2 kV=0.12 Vminpu=0.8 Vmaxpu=1.2 model=1 kW=1.330015 kvar=0.2700710645231352 Phases=1

New Load.load_p6ulv23226_1 conn=wye bus1=p6ulv23226.1 kV=0.12 Vminpu=0.8 Vmaxpu=1.2 model=1 kW=1.580015 kvar=0.3200080628775847 Phases=1

New Load.load_p6ulv23226_2 conn=wye bus1=p6ulv23226.2 kV=0.12 Vminpu=0.8 Vmaxpu=1.2 model=1 kW=1.580015 kvar=0.3200080628775847 Phases=1

New Load.load_p6ulv23227_1 conn=wye bus1=p6ulv23227.1 kV=0.12 Vminpu=0.8 Vmaxpu=1.2 model=1 kW=1.0600100000000001 kvar=0.2152442108586509 Phases=1

New Load.load_p6ulv23227_2 conn=wye bus1=p6ulv23227.2 kV=0.12 Vminpu=0.8 Vmaxpu=1.2 model=1 kW=1.0600100000000001 kvar=0.2152442108586509 Phases=1

New Load.load_p6ulv23228_1 conn=wye bus1=p6ulv23228.1 kV=0.12 Vminpu=0.8 Vmaxpu=1.2 model=1 kW=0.80001 kvar=0.15991999924178213 Phases=1

New Load.load_p6ulv23228_2 conn=wye bus1=p6ulv23228.2 kV=0.12 Vminpu=0.8 Vmaxpu=1.2 model=1 kW=0.80001 kvar=0.15991999924178213 Phases=1

New Load.load_p6ulv23229_1 conn=wye bus1=p6ulv23229.1 kV=0.12 Vminpu=0.8 Vmaxpu=1.2 model=1 kW=0.6500050000000002 kvar=0.12993437470425945 Phases=1

New Load.load_p6ulv23229_2 conn=wye bus1=p6ulv23229.2 kV=0.12 Vminpu=0.8 Vmaxpu=1.2 model=1 kW=0.6500050000000002 kvar=0.12993437470425945 Phases=1

New Load.load_p6ulv23230_1 conn=wye bus1=p6ulv23230.1 kV=0.12 Vminpu=0.8 Vmaxpu=1.2 model=1 kW=0.93001 kvar=0.18981762182034304 Phases=1

New Load.load_p6ulv23230_2 conn=wye bus1=p6ulv23230.2 kV=0.12 Vminpu=0.8 Vmaxpu=1.2 model=1 kW=0.93001 kvar=0.18981762182034304 Phases=1

New Load.load_p6ulv23231_1 conn=wye bus1=p6ulv23231.1 kV=0.12 Vminpu=0.8 Vmaxpu=1.2 model=1 kW=0.78501 kvar=0.1598133620430056 Phases=1

New Load.load_p6ulv23231_2 conn=wye bus1=p6ulv23231.2 kV=0.12 Vminpu=0.8 Vmaxpu=1.2 model=1 kW=0.78501 kvar=0.1598133620430056 Phases=1

New Load.load_p6ulv23232_1 conn=wye bus1=p6ulv23232.1 kV=0.12 Vminpu=0.8 Vmaxpu=1.2 model=1 kW=0.680005 kvar=0.13984996089752658 Phases=1

New Load.load_p6ulv23232_2 conn=wye bus1=p6ulv23232.2 kV=0.12 Vminpu=0.8 Vmaxpu=1.2 model=1 kW=0.680005 kvar=0.13984996089752658 Phases=1

New Load.load_p6ulv23346_1 conn=wye bus1=p6ulv23346.1 kV=0.12 Vminpu=0.8 Vmaxpu=1.2 model=1 kW=1.13501 kvar=0.375069740201102 Phases=1

New Load.load_p6ulv23346_2 conn=wye bus1=p6ulv23346.2 kV=0.12 Vminpu=0.8 Vmaxpu=1.2 model=1 kW=1.13501 kvar=0.375069740201102 Phases=1

New Load.load_p6ulv23347_1 conn=wye bus1=p6ulv23347.1 kV=0.12 Vminpu=0.8 Vmaxpu=1.2 model=1 kW=0.695005 kvar=0.14003207787879351 Phases=1

New Load.load_p6ulv23347_2 conn=wye bus1=p6ulv23347.2 kV=0.12 Vminpu=0.8 Vmaxpu=1.2 model=1 kW=0.695005 kvar=0.14003207787879351 Phases=1

New Load.load_p6ulv23348_1 conn=wye bus1=p6ulv23348.1 kV=0.12 Vminpu=0.8 Vmaxpu=1.2 model=1 kW=1.490015 kvar=0.30489144804408924 Phases=1

New Load.load_p6ulv23348_2 conn=wye bus1=p6ulv23348.2 kV=0.12 Vminpu=0.8 Vmaxpu=1.2 model=1 kW=1.490015 kvar=0.30489144804408924 Phases=1

New Load.load_p6ulv23349_1 conn=wye bus1=p6ulv23349.1 kV=0.12 Vminpu=0.8 Vmaxpu=1.2 model=1 kW=1.365015 kvar=0.27502807430985576 Phases=1

New Load.load_p6ulv23349_2 conn=wye bus1=p6ulv23349.2 kV=0.12 Vminpu=0.8 Vmaxpu=1.2 model=1 kW=1.365015 kvar=0.27502807430985576 Phases=1

New Load.load_p6ulv23350_1 conn=wye bus1=p6ulv23350.1 kV=0.12 Vminpu=0.8 Vmaxpu=1.2 model=1 kW=1.445015 kvar=0.2949315714828044 Phases=1

New Load.load_p6ulv23350_2 conn=wye bus1=p6ulv23350.2 kV=0.12 Vminpu=0.8 Vmaxpu=1.2 model=1 kW=1.445015 kvar=0.2949315714828044 Phases=1

New Load.load_p6ulv23351_1 conn=wye bus1=p6ulv23351.1 kV=0.12 Vminpu=0.8 Vmaxpu=1.2 model=1 kW=1.09001 kvar=0.22019269518951132 Phases=1

New Load.load_p6ulv23351_2 conn=wye bus1=p6ulv23351.2 kV=0.12 Vminpu=0.8 Vmaxpu=1.2 model=1 kW=1.09001 kvar=0.22019269518951132 Phases=1

New Load.load_p6ulv23352_1 conn=wye bus1=p6ulv23352.1 kV=0.12 Vminpu=0.8 Vmaxpu=1.2 model=1 kW=1.81002 kvar=0.3646892635336059 Phases=1

New Load.load_p6ulv23352_2 conn=wye bus1=p6ulv23352.2 kV=0.12 Vminpu=0.8 Vmaxpu=1.2 model=1 kW=1.81002 kvar=0.3646892635336059 Phases=1

New Load.load_p6ulv23353_1 conn=wye bus1=p6ulv23353.1 kV=0.12 Vminpu=0.8 Vmaxpu=1.2 model=1 kW=0.645005 kvar=0.12995790014778485 Phases=1

New Load.load_p6ulv23353_2 conn=wye bus1=p6ulv23353.2 kV=0.12 Vminpu=0.8 Vmaxpu=1.2 model=1 kW=0.645005 kvar=0.12995790014778485 Phases=1

New Load.load_p6ulv23354_1 conn=wye bus1=p6ulv23354.1 kV=0.12 Vminpu=0.8 Vmaxpu=1.2 model=1 kW=0.275003 kvar=0.0549724122842062 Phases=1

New Load.load_p6ulv23354_2 conn=wye bus1=p6ulv23354.2 kV=0.12 Vminpu=0.8 Vmaxpu=1.2 model=1 kW=0.275003 kvar=0.0549724122842062 Phases=1

New Load.load_p6ulv23355_1 conn=wye bus1=p6ulv23355.1 kV=0.12 Vminpu=0.8 Vmaxpu=1.2 model=1 kW=0.645005 kvar=0.12995790014778485 Phases=1

New Load.load_p6ulv23355_2 conn=wye bus1=p6ulv23355.2 kV=0.12 Vminpu=0.8 Vmaxpu=1.2 model=1 kW=0.645005 kvar=0.12995790014778485 Phases=1

New Load.load_p6ulv23356_1 conn=wye bus1=p6ulv23356.1 kV=0.12 Vminpu=0.8 Vmaxpu=1.2 model=1 kW=0.620005 kvar=0.1249208112822805 Phases=1

New Load.load_p6ulv23356_2 conn=wye bus1=p6ulv23356.2 kV=0.12 Vminpu=0.8 Vmaxpu=1.2 model=1 kW=0.620005 kvar=0.1249208112822805 Phases=1

New Load.load_p6ulv23357_1 conn=wye bus1=p6ulv23357.1 kV=0.12 Vminpu=0.8 Vmaxpu=1.2 model=1 kW=1.15001 kvar=0.23472023233041867 Phases=1

New Load.load_p6ulv23357_2 conn=wye bus1=p6ulv23357.2 kV=0.12 Vminpu=0.8 Vmaxpu=1.2 model=1 kW=1.15001 kvar=0.23472023233041867 Phases=1

New Load.load_p6ulv23358_1 conn=wye bus1=p6ulv23358.1 kV=0.12 Vminpu=0.8 Vmaxpu=1.2 model=1 kW=0.87501 kvar=0.17995472722251266 Phases=1

New Load.load_p6ulv23358_2 conn=wye bus1=p6ulv23358.2 kV=0.12 Vminpu=0.8 Vmaxpu=1.2 model=1 kW=0.87501 kvar=0.17995472722251266 Phases=1

New Load.load_p6ulv23359_1 conn=wye bus1=p6ulv23359.1 kV=0.12 Vminpu=0.8 Vmaxpu=1.2 model=1 kW=0.675005 kvar=0.13493181221259629 Phases=1

New Load.load_p6ulv23359_2 conn=wye bus1=p6ulv23359.2 kV=0.12 Vminpu=0.8 Vmaxpu=1.2 model=1 kW=0.675005 kvar=0.13493181221259629 Phases=1

New Load.load_p6ulv23360_1 conn=wye bus1=p6ulv23360.1 kV=0.12 Vminpu=0.8 Vmaxpu=1.2 model=1 kW=0.84501 kvar=0.16980991337253348 Phases=1

New Load.load_p6ulv23360_2 conn=wye bus1=p6ulv23360.2 kV=0.12 Vminpu=0.8 Vmaxpu=1.2 model=1 kW=0.84501 kvar=0.16980991337253348 Phases=1

New Load.load_p6ulv23378_1 conn=wye bus1=p6ulv23378.1 kV=0.12 Vminpu=0.8 Vmaxpu=1.2 model=1 kW=0.320003 kvar=0.06497938057886327 Phases=1

New Load.load_p6ulv23378_2 conn=wye bus1=p6ulv23378.2 kV=0.12 Vminpu=0.8 Vmaxpu=1.2 model=1 kW=0.320003 kvar=0.06497938057886327 Phases=1

New Load.load_p6ulv26800_1 conn=wye bus1=p6ulv26800.1 kV=0.12 Vminpu=0.8 Vmaxpu=1.2 model=1 kW=0.510005 kvar=0.10488772774838868 Phases=1

New Load.load_p6ulv26800_2 conn=wye bus1=p6ulv26800.2 kV=0.12 Vminpu=0.8 Vmaxpu=1.2 model=1 kW=0.510005 kvar=0.10488772774838868 Phases=1

New Load.load_p6ulv26801_1 conn=wye bus1=p6ulv26801.1 kV=0.12 Vminpu=0.8 Vmaxpu=1.2 model=1 kW=6.41005 kvar=1.3016161675969993 Phases=1

New Load.load_p6ulv26801_2 conn=wye bus1=p6ulv26801.2 kV=0.12 Vminpu=0.8 Vmaxpu=1.2 model=1 kW=6.41005 kvar=1.3016161675969993 Phases=1

New Load.load_p6ulv26802_1 conn=wye bus1=p6ulv26802.1 kV=0.12 Vminpu=0.8 Vmaxpu=1.2 model=1 kW=9.3701 kvar=1.9026799560066836 Phases=1

New Load.load_p6ulv26802_2 conn=wye bus1=p6ulv26802.2 kV=0.12 Vminpu=0.8 Vmaxpu=1.2 model=1 kW=9.3701 kvar=1.9026799560066836 Phases=1

New Load.load_p6ulv26803_1 conn=wye bus1=p6ulv26803.1 kV=0.12 Vminpu=0.8 Vmaxpu=1.2 model=1 kW=1.670015 kvar=0.3399838369094025 Phases=1

New Load.load_p6ulv26803_2 conn=wye bus1=p6ulv26803.2 kV=0.12 Vminpu=0.8 Vmaxpu=1.2 model=1 kW=1.670015 kvar=0.3399838369094025 Phases=1

New Load.load_p6ulv26804_1 conn=wye bus1=p6ulv26804.1 kV=0.12 Vminpu=0.8 Vmaxpu=1.2 model=1 kW=0.480005 kvar=0.09492831937299649 Phases=1

New Load.load_p6ulv26804_2 conn=wye bus1=p6ulv26804.2 kV=0.12 Vminpu=0.8 Vmaxpu=1.2 model=1 kW=0.480005 kvar=0.09492831937299649 Phases=1

New Load.load_p6ulv26805_1 conn=wye bus1=p6ulv26805.1 kV=0.12 Vminpu=0.8 Vmaxpu=1.2 model=1 kW=1.03001 kvar=0.21022789932492286 Phases=1

New Load.load_p6ulv26805_2 conn=wye bus1=p6ulv26805.2 kV=0.12 Vminpu=0.8 Vmaxpu=1.2 model=1 kW=1.03001 kvar=0.21022789932492286 Phases=1

New Load.load_p6ulv26806_1 conn=wye bus1=p6ulv26806.1 kV=0.12 Vminpu=0.8 Vmaxpu=1.2 model=1 kW=0.85501 kvar=0.17495477360441117 Phases=1

New Load.load_p6ulv26806_2 conn=wye bus1=p6ulv26806.2 kV=0.12 Vminpu=0.8 Vmaxpu=1.2 model=1 kW=0.85501 kvar=0.17495477360441117 Phases=1

New Load.load_p6ulv26807_1 conn=wye bus1=p6ulv26807.1 kV=0.12 Vminpu=0.8 Vmaxpu=1.2 model=1 kW=0.735005 kvar=0.15001656017253706 Phases=1

New Load.load_p6ulv26807_2 conn=wye bus1=p6ulv26807.2 kV=0.12 Vminpu=0.8 Vmaxpu=1.2 model=1 kW=0.735005 kvar=0.15001656017253706 Phases=1

New Load.load_p6ulv26808_1 conn=wye bus1=p6ulv26808.1 kV=0.12 Vminpu=0.8 Vmaxpu=1.2 model=1 kW=2.2450200000000002 kvar=0.45469473474709754 Phases=1

New Load.load_p6ulv26808_2 conn=wye bus1=p6ulv26808.2 kV=0.12 Vminpu=0.8 Vmaxpu=1.2 model=1 kW=2.2450200000000002 kvar=0.45469473474709754 Phases=1

New Load.load_p6ulv26809_1 conn=wye bus1=p6ulv26809.1 kV=0.12 Vminpu=0.8 Vmaxpu=1.2 model=1 kW=3.4950350000000006 kvar=0.7096971259689673 Phases=1

New Load.load_p6ulv26809_2 conn=wye bus1=p6ulv26809.2 kV=0.12 Vminpu=0.8 Vmaxpu=1.2 model=1 kW=3.4950350000000006 kvar=0.7096971259689673 Phases=1

New Load.load_p6ulv26810_1 conn=wye bus1=p6ulv26810.1 kV=0.12 Vminpu=0.8 Vmaxpu=1.2 model=1 kW=4.05504 kvar=0.8255303443508613 Phases=1

New Load.load_p6ulv26810_2 conn=wye bus1=p6ulv26810.2 kV=0.12 Vminpu=0.8 Vmaxpu=1.2 model=1 kW=4.05504 kvar=0.8255303443508613 Phases=1

New Load.load_p6ulv26811_1 conn=wye bus1=p6ulv26811.1 kV=0.12 Vminpu=0.8 Vmaxpu=1.2 model=1 kW=0.730005 kvar=0.150132970647273 Phases=1

New Load.load_p6ulv26811_2 conn=wye bus1=p6ulv26811.2 kV=0.12 Vminpu=0.8 Vmaxpu=1.2 model=1 kW=0.730005 kvar=0.150132970647273 Phases=1

New Load.load_p6ulv26812_1 conn=wye bus1=p6ulv26812.1 kV=0.12 Vminpu=0.8 Vmaxpu=1.2 model=1 kW=0.505005 kvar=0.09987245117230048 Phases=1

New Load.load_p6ulv26812_2 conn=wye bus1=p6ulv26812.2 kV=0.12 Vminpu=0.8 Vmaxpu=1.2 model=1 kW=0.505005 kvar=0.09987245117230048 Phases=1

New Load.load_p6ulv26813_1 conn=wye bus1=p6ulv26813.1 kV=0.12 Vminpu=0.8 Vmaxpu=1.2 model=1 kW=1.14001 kvar=0.23029318487261108 Phases=1

New Load.load_p6ulv26813_2 conn=wye bus1=p6ulv26813.2 kV=0.12 Vminpu=0.8 Vmaxpu=1.2 model=1 kW=1.14001 kvar=0.23029318487261108 Phases=1

